<?xml version='1.0' encoding='UTF-8'?>
<routes>
<vType id="fastCar" accel="4.0" decel="6.0" sigma="0.5" length="5" maxSpeed="20.0" color="0,1,0" guiShape="passenger/sedan" />
<vType id="slowCar" accel="2.0" decel="4.0" sigma="0.5" length="5" maxSpeed="10.0" color="0,0,1" guiShape="passenger/hatchback" />
<vType id="ambulance" accel="3.0" decel="6.0" sigma="0.5" length="10" maxSpeed="13.9" color="1,1,1" guiShape="emergency" />
<route id="route0" edges="A_B B_C" />
<route id="route1" edges="A_B B_C C_F" />
<route id="route2" edges="A_B B_C C_F F_E E_B B_A" />
<route id="route3" edges="A_B B_C C_F F_E E_B B_A A_D" />
<route id="route4" edges="A_B B_C C_F F_E E_B B_A A_D D_G" />
<route id="route5" edges="A_B B_C C_F F_E E_B B_A A_D D_A" />
<route id="route6" edges="A_B B_C C_F F_E E_B B_E E_D D_A" />
<route id="route7" edges="A_B B_C C_F F_E E_B B_E E_D D_G" />
<route id="route8" edges="A_B B_C C_F F_E E_B B_E E_F F_I" />
<route id="route9" edges="A_B B_C C_F F_E E_B B_E E_F F_C" />
<route id="route10" edges="A_B B_C C_F F_E E_B B_E E_H H_G" />
<route id="route11" edges="A_B B_C C_F F_E E_B B_E E_H H_I" />
<route id="route12" edges="A_B B_C C_F F_E E_D D_A" />
<route id="route13" edges="A_B B_C C_F F_E E_D D_A A_D" />
<route id="route14" edges="A_B B_C C_F F_E E_D D_A A_D D_G" />
<route id="route15" edges="A_B B_C C_F F_E E_D D_G" />
<route id="route16" edges="A_B B_C C_F F_E E_D D_G G_H" />
<route id="route17" edges="A_B B_C C_F F_E E_D D_G G_H H_I" />
<route id="route18" edges="A_B B_C C_F F_E E_D D_G G_H H_G" />
<route id="route19" edges="A_B B_C C_F F_E E_D D_G G_D" />
<route id="route20" edges="A_B B_C C_F F_E E_D D_G G_D D_A" />
<route id="route21" edges="A_B B_C C_F F_E E_D D_E E_F F_I" />
<route id="route22" edges="A_B B_C C_F F_E E_D D_E E_F F_C" />
<route id="route23" edges="A_B B_C C_F F_E E_D D_E E_H H_G" />
<route id="route24" edges="A_B B_C C_F F_E E_D D_E E_H H_I" />
<route id="route25" edges="A_B B_C C_F F_E E_D D_E E_B B_A" />
<route id="route26" edges="A_B B_C C_F F_E E_H H_G" />
<route id="route27" edges="A_B B_C C_F F_E E_H H_G G_D" />
<route id="route28" edges="A_B B_C C_F F_E E_H H_G G_D D_A" />
<route id="route29" edges="A_B B_C C_F F_E E_H H_G G_D D_G" />
<route id="route30" edges="A_B B_C C_F F_E E_H H_G G_H" />
<route id="route31" edges="A_B B_C C_F F_E E_H H_G G_H H_I" />
<route id="route32" edges="A_B B_C C_F F_E E_H H_I" />
<route id="route33" edges="A_B B_C C_F F_E E_H H_I I_F" />
<route id="route34" edges="A_B B_C C_F F_E E_H H_I I_F F_C" />
<route id="route35" edges="A_B B_C C_F F_E E_H H_I I_F F_I" />
<route id="route36" edges="A_B B_C C_F F_E E_H H_I I_H" />
<route id="route37" edges="A_B B_C C_F F_E E_H H_I I_H H_G" />
<route id="route38" edges="A_B B_C C_F F_E E_H H_E E_B B_A" />
<route id="route39" edges="A_B B_C C_F F_E E_H H_E E_D D_A" />
<route id="route40" edges="A_B B_C C_F F_E E_H H_E E_D D_G" />
<route id="route41" edges="A_B B_C C_F F_E E_H H_E E_F F_I" />
<route id="route42" edges="A_B B_C C_F F_E E_H H_E E_F F_C" />
<route id="route43" edges="A_B B_C C_F F_E E_F F_I" />
<route id="route44" edges="A_B B_C C_F F_E E_F F_I I_H" />
<route id="route45" edges="A_B B_C C_F F_E E_F F_I I_H H_G" />
<route id="route46" edges="A_B B_C C_F F_E E_F F_I I_H H_I" />
<route id="route47" edges="A_B B_C C_F F_E E_F F_I I_F" />
<route id="route48" edges="A_B B_C C_F F_E E_F F_I I_F F_C" />
<route id="route49" edges="A_B B_C C_F F_E E_F F_C" />
<route id="route50" edges="A_B B_C C_F F_E E_F F_C C_B" />
<route id="route51" edges="A_B B_C C_F F_E E_F F_C C_B B_A" />
<route id="route52" edges="A_B B_C C_F F_I" />
<route id="route53" edges="A_B B_C C_F F_I I_H" />
<route id="route54" edges="A_B B_C C_F F_I I_H H_G" />
<route id="route55" edges="A_B B_C C_F F_I I_H H_G G_D" />
<route id="route56" edges="A_B B_C C_F F_I I_H H_G G_D D_A" />
<route id="route57" edges="A_B B_C C_F F_I I_H H_G G_D D_G" />
<route id="route58" edges="A_B B_C C_F F_I I_H H_G G_H" />
<route id="route59" edges="A_B B_C C_F F_I I_H H_G G_H H_I" />
<route id="route60" edges="A_B B_C C_F F_I I_H H_E E_B B_A" />
<route id="route61" edges="A_B B_C C_F F_I I_H H_E E_D D_A" />
<route id="route62" edges="A_B B_C C_F F_I I_H H_E E_D D_G" />
<route id="route63" edges="A_B B_C C_F F_I I_H H_E E_F F_C" />
<route id="route64" edges="A_B B_C C_F F_I I_H H_E E_H H_G" />
<route id="route65" edges="A_B B_C C_F F_I I_H H_E E_H H_I" />
<route id="route66" edges="A_B B_C C_F F_I I_H H_I" />
<route id="route67" edges="A_B B_C C_F F_I I_H H_I I_F" />
<route id="route68" edges="A_B B_C C_F F_I I_H H_I I_F F_C" />
<route id="route69" edges="A_B B_C C_F F_I I_F" />
<route id="route70" edges="A_B B_C C_F F_I I_F F_C" />
<route id="route71" edges="A_B B_C C_F F_I I_F F_C C_B" />
<route id="route72" edges="A_B B_C C_F F_I I_F F_C C_B B_A" />
<route id="route73" edges="A_B B_C C_F F_I I_F F_E E_B B_A" />
<route id="route74" edges="A_B B_C C_F F_I I_F F_E E_D D_A" />
<route id="route75" edges="A_B B_C C_F F_I I_F F_E E_D D_G" />
<route id="route76" edges="A_B B_C C_F F_I I_F F_E E_H H_G" />
<route id="route77" edges="A_B B_C C_F F_I I_F F_E E_H H_I" />
<route id="route78" edges="A_B B_C C_F F_I I_F F_E E_F F_C" />
<route id="route79" edges="A_B B_C C_F F_C" />
<route id="route80" edges="A_B B_C C_F F_C C_B" />
<route id="route81" edges="A_B B_C C_F F_C C_B B_A" />
<route id="route82" edges="A_B B_C C_F F_C C_B B_A A_D" />
<route id="route83" edges="A_B B_C C_F F_C C_B B_A A_D D_G" />
<route id="route84" edges="A_B B_C C_F F_C C_B B_A A_D D_A" />
<route id="route85" edges="A_B B_C C_F F_C C_B B_E E_D D_A" />
<route id="route86" edges="A_B B_C C_F F_C C_B B_E E_D D_G" />
<route id="route87" edges="A_B B_C C_F F_C C_B B_E E_F F_I" />
<route id="route88" edges="A_B B_C C_F F_C C_B B_E E_H H_G" />
<route id="route89" edges="A_B B_C C_F F_C C_B B_E E_H H_I" />
<route id="route90" edges="A_B B_C C_F F_C C_B B_E E_B B_A" />
<route id="route91" edges="A_B B_C C_B" />
<route id="route92" edges="A_B B_C C_B B_A" />
<route id="route93" edges="A_B B_C C_B B_A A_D" />
<route id="route94" edges="A_B B_C C_B B_A A_D D_E E_F F_I" />
<route id="route95" edges="A_B B_C C_B B_A A_D D_E E_F F_C" />
<route id="route96" edges="A_B B_C C_B B_A A_D D_E E_H H_G" />
<route id="route97" edges="A_B B_C C_B B_A A_D D_E E_H H_I" />
<route id="route98" edges="A_B B_C C_B B_A A_D D_E E_D D_A" />
<route id="route99" edges="A_B B_C C_B B_A A_D D_E E_D D_G" />
<route id="route100" edges="A_B B_C C_B B_A A_D D_G" />
<route id="route101" edges="A_B B_C C_B B_A A_D D_G G_H" />
<route id="route102" edges="A_B B_C C_B B_A A_D D_G G_H H_I" />
<route id="route103" edges="A_B B_C C_B B_A A_D D_G G_H H_G" />
<route id="route104" edges="A_B B_C C_B B_A A_D D_G G_D" />
<route id="route105" edges="A_B B_C C_B B_A A_D D_G G_D D_A" />
<route id="route106" edges="A_B B_C C_B B_A A_D D_A" />
<route id="route107" edges="A_B B_C C_B B_E E_D D_A" />
<route id="route108" edges="A_B B_C C_B B_E E_D D_A A_D" />
<route id="route109" edges="A_B B_C C_B B_E E_D D_A A_D D_G" />
<route id="route110" edges="A_B B_C C_B B_E E_D D_G" />
<route id="route111" edges="A_B B_C C_B B_E E_D D_G G_H" />
<route id="route112" edges="A_B B_C C_B B_E E_D D_G G_H H_I" />
<route id="route113" edges="A_B B_C C_B B_E E_D D_G G_H H_G" />
<route id="route114" edges="A_B B_C C_B B_E E_D D_G G_D" />
<route id="route115" edges="A_B B_C C_B B_E E_D D_G G_D D_A" />
<route id="route116" edges="A_B B_C C_B B_E E_D D_E E_F F_I" />
<route id="route117" edges="A_B B_C C_B B_E E_D D_E E_F F_C" />
<route id="route118" edges="A_B B_C C_B B_E E_D D_E E_H H_G" />
<route id="route119" edges="A_B B_C C_B B_E E_D D_E E_H H_I" />
<route id="route120" edges="A_B B_C C_B B_E E_D D_E E_B B_A" />
<route id="route121" edges="A_B B_C C_B B_E E_F F_I" />
<route id="route122" edges="A_B B_C C_B B_E E_F F_I I_H" />
<route id="route123" edges="A_B B_C C_B B_E E_F F_I I_H H_G" />
<route id="route124" edges="A_B B_C C_B B_E E_F F_I I_H H_I" />
<route id="route125" edges="A_B B_C C_B B_E E_F F_I I_F" />
<route id="route126" edges="A_B B_C C_B B_E E_F F_I I_F F_C" />
<route id="route127" edges="A_B B_C C_B B_E E_F F_C" />
<route id="route128" edges="A_B B_C C_B B_E E_F F_C C_F" />
<route id="route129" edges="A_B B_C C_B B_E E_F F_C C_F F_I" />
<route id="route130" edges="A_B B_C C_B B_E E_F F_E E_B B_A" />
<route id="route131" edges="A_B B_C C_B B_E E_F F_E E_D D_A" />
<route id="route132" edges="A_B B_C C_B B_E E_F F_E E_D D_G" />
<route id="route133" edges="A_B B_C C_B B_E E_F F_E E_H H_G" />
<route id="route134" edges="A_B B_C C_B B_E E_F F_E E_H H_I" />
<route id="route135" edges="A_B B_C C_B B_E E_H H_G" />
<route id="route136" edges="A_B B_C C_B B_E E_H H_G G_D" />
<route id="route137" edges="A_B B_C C_B B_E E_H H_G G_D D_A" />
<route id="route138" edges="A_B B_C C_B B_E E_H H_G G_D D_G" />
<route id="route139" edges="A_B B_C C_B B_E E_H H_G G_H" />
<route id="route140" edges="A_B B_C C_B B_E E_H H_G G_H H_I" />
<route id="route141" edges="A_B B_C C_B B_E E_H H_I" />
<route id="route142" edges="A_B B_C C_B B_E E_H H_I I_F" />
<route id="route143" edges="A_B B_C C_B B_E E_H H_I I_F F_C" />
<route id="route144" edges="A_B B_C C_B B_E E_H H_I I_F F_I" />
<route id="route145" edges="A_B B_C C_B B_E E_H H_I I_H" />
<route id="route146" edges="A_B B_C C_B B_E E_H H_I I_H H_G" />
<route id="route147" edges="A_B B_C C_B B_E E_H H_E E_B B_A" />
<route id="route148" edges="A_B B_C C_B B_E E_H H_E E_D D_A" />
<route id="route149" edges="A_B B_C C_B B_E E_H H_E E_D D_G" />
<route id="route150" edges="A_B B_C C_B B_E E_H H_E E_F F_I" />
<route id="route151" edges="A_B B_C C_B B_E E_H H_E E_F F_C" />
<route id="route152" edges="A_B B_C C_B B_E E_B B_A" />
<route id="route153" edges="A_B B_C C_B B_E E_B B_A A_D" />
<route id="route154" edges="A_B B_C C_B B_E E_B B_A A_D D_G" />
<route id="route155" edges="A_B B_C C_B B_E E_B B_A A_D D_A" />
<route id="route156" edges="A_B B_E E_D D_A" />
<route id="route157" edges="A_B B_E E_D D_A A_D" />
<route id="route158" edges="A_B B_E E_D D_A A_D D_E E_F F_I" />
<route id="route159" edges="A_B B_E E_D D_A A_D D_E E_F F_C" />
<route id="route160" edges="A_B B_E E_D D_A A_D D_E E_H H_G" />
<route id="route161" edges="A_B B_E E_D D_A A_D D_E E_H H_I" />
<route id="route162" edges="A_B B_E E_D D_A A_D D_E E_B B_A" />
<route id="route163" edges="A_B B_E E_D D_A A_D D_E E_B B_C" />
<route id="route164" edges="A_B B_E E_D D_A A_D D_G" />
<route id="route165" edges="A_B B_E E_D D_A A_D D_G G_H" />
<route id="route166" edges="A_B B_E E_D D_A A_D D_G G_H H_I" />
<route id="route167" edges="A_B B_E E_D D_A A_D D_G G_H H_G" />
<route id="route168" edges="A_B B_E E_D D_A A_D D_G G_D" />
<route id="route169" edges="A_B B_E E_D D_G" />
<route id="route170" edges="A_B B_E E_D D_G G_H" />
<route id="route171" edges="A_B B_E E_D D_G G_H H_I" />
<route id="route172" edges="A_B B_E E_D D_G G_H H_I I_F" />
<route id="route173" edges="A_B B_E E_D D_G G_H H_I I_F F_C" />
<route id="route174" edges="A_B B_E E_D D_G G_H H_I I_F F_I" />
<route id="route175" edges="A_B B_E E_D D_G G_H H_I I_H" />
<route id="route176" edges="A_B B_E E_D D_G G_H H_I I_H H_G" />
<route id="route177" edges="A_B B_E E_D D_G G_H H_E E_B B_A" />
<route id="route178" edges="A_B B_E E_D D_G G_H H_E E_B B_C" />
<route id="route179" edges="A_B B_E E_D D_G G_H H_E E_F F_I" />
<route id="route180" edges="A_B B_E E_D D_G G_H H_E E_F F_C" />
<route id="route181" edges="A_B B_E E_D D_G G_H H_E E_H H_G" />
<route id="route182" edges="A_B B_E E_D D_G G_H H_E E_H H_I" />
<route id="route183" edges="A_B B_E E_D D_G G_H H_G" />
<route id="route184" edges="A_B B_E E_D D_G G_H H_G G_D" />
<route id="route185" edges="A_B B_E E_D D_G G_H H_G G_D D_A" />
<route id="route186" edges="A_B B_E E_D D_G G_D" />
<route id="route187" edges="A_B B_E E_D D_G G_D D_A" />
<route id="route188" edges="A_B B_E E_D D_G G_D D_A A_D" />
<route id="route189" edges="A_B B_E E_D D_G G_D D_E E_F F_I" />
<route id="route190" edges="A_B B_E E_D D_G G_D D_E E_F F_C" />
<route id="route191" edges="A_B B_E E_D D_G G_D D_E E_H H_G" />
<route id="route192" edges="A_B B_E E_D D_G G_D D_E E_H H_I" />
<route id="route193" edges="A_B B_E E_D D_G G_D D_E E_B B_A" />
<route id="route194" edges="A_B B_E E_D D_G G_D D_E E_B B_C" />
<route id="route195" edges="A_B B_E E_D D_E E_F F_I" />
<route id="route196" edges="A_B B_E E_D D_E E_F F_I I_H" />
<route id="route197" edges="A_B B_E E_D D_E E_F F_I I_H H_G" />
<route id="route198" edges="A_B B_E E_D D_E E_F F_I I_H H_I" />
<route id="route199" edges="A_B B_E E_D D_E E_F F_I I_F" />
<route id="route200" edges="A_B B_E E_D D_E E_F F_I I_F F_C" />
<route id="route201" edges="A_B B_E E_D D_E E_F F_C" />
<route id="route202" edges="A_B B_E E_D D_E E_F F_C C_B" />
<route id="route203" edges="A_B B_E E_D D_E E_F F_C C_B B_A" />
<route id="route204" edges="A_B B_E E_D D_E E_F F_C C_B B_C" />
<route id="route205" edges="A_B B_E E_D D_E E_F F_C C_F" />
<route id="route206" edges="A_B B_E E_D D_E E_F F_C C_F F_I" />
<route id="route207" edges="A_B B_E E_D D_E E_F F_E E_B B_A" />
<route id="route208" edges="A_B B_E E_D D_E E_F F_E E_B B_C" />
<route id="route209" edges="A_B B_E E_D D_E E_F F_E E_H H_G" />
<route id="route210" edges="A_B B_E E_D D_E E_F F_E E_H H_I" />
<route id="route211" edges="A_B B_E E_D D_E E_H H_G" />
<route id="route212" edges="A_B B_E E_D D_E E_H H_G G_D" />
<route id="route213" edges="A_B B_E E_D D_E E_H H_G G_D D_A" />
<route id="route214" edges="A_B B_E E_D D_E E_H H_G G_D D_G" />
<route id="route215" edges="A_B B_E E_D D_E E_H H_G G_H" />
<route id="route216" edges="A_B B_E E_D D_E E_H H_G G_H H_I" />
<route id="route217" edges="A_B B_E E_D D_E E_H H_I" />
<route id="route218" edges="A_B B_E E_D D_E E_H H_I I_F" />
<route id="route219" edges="A_B B_E E_D D_E E_H H_I I_F F_C" />
<route id="route220" edges="A_B B_E E_D D_E E_H H_I I_F F_I" />
<route id="route221" edges="A_B B_E E_D D_E E_H H_I I_H" />
<route id="route222" edges="A_B B_E E_D D_E E_H H_I I_H H_G" />
<route id="route223" edges="A_B B_E E_D D_E E_H H_E E_B B_A" />
<route id="route224" edges="A_B B_E E_D D_E E_H H_E E_B B_C" />
<route id="route225" edges="A_B B_E E_D D_E E_H H_E E_F F_I" />
<route id="route226" edges="A_B B_E E_D D_E E_H H_E E_F F_C" />
<route id="route227" edges="A_B B_E E_D D_E E_B B_A" />
<route id="route228" edges="A_B B_E E_D D_E E_B B_A A_D" />
<route id="route229" edges="A_B B_E E_D D_E E_B B_A A_D D_G" />
<route id="route230" edges="A_B B_E E_D D_E E_B B_A A_D D_A" />
<route id="route231" edges="A_B B_E E_D D_E E_B B_C" />
<route id="route232" edges="A_B B_E E_D D_E E_B B_C C_F" />
<route id="route233" edges="A_B B_E E_D D_E E_B B_C C_F F_I" />
<route id="route234" edges="A_B B_E E_D D_E E_B B_C C_F F_C" />
<route id="route235" edges="A_B B_E E_D D_E E_B B_C C_B" />
<route id="route236" edges="A_B B_E E_D D_E E_B B_C C_B B_A" />
<route id="route237" edges="A_B B_E E_F F_I" />
<route id="route238" edges="A_B B_E E_F F_I I_H" />
<route id="route239" edges="A_B B_E E_F F_I I_H H_G" />
<route id="route240" edges="A_B B_E E_F F_I I_H H_G G_D" />
<route id="route241" edges="A_B B_E E_F F_I I_H H_G G_D D_A" />
<route id="route242" edges="A_B B_E E_F F_I I_H H_G G_D D_G" />
<route id="route243" edges="A_B B_E E_F F_I I_H H_G G_H" />
<route id="route244" edges="A_B B_E E_F F_I I_H H_G G_H H_I" />
<route id="route245" edges="A_B B_E E_F F_I I_H H_E E_B B_A" />
<route id="route246" edges="A_B B_E E_F F_I I_H H_E E_B B_C" />
<route id="route247" edges="A_B B_E E_F F_I I_H H_E E_D D_A" />
<route id="route248" edges="A_B B_E E_F F_I I_H H_E E_D D_G" />
<route id="route249" edges="A_B B_E E_F F_I I_H H_E E_H H_G" />
<route id="route250" edges="A_B B_E E_F F_I I_H H_E E_H H_I" />
<route id="route251" edges="A_B B_E E_F F_I I_H H_I" />
<route id="route252" edges="A_B B_E E_F F_I I_H H_I I_F" />
<route id="route253" edges="A_B B_E E_F F_I I_H H_I I_F F_C" />
<route id="route254" edges="A_B B_E E_F F_I I_F" />
<route id="route255" edges="A_B B_E E_F F_I I_F F_C" />
<route id="route256" edges="A_B B_E E_F F_I I_F F_C C_B" />
<route id="route257" edges="A_B B_E E_F F_I I_F F_C C_B B_A" />
<route id="route258" edges="A_B B_E E_F F_I I_F F_C C_B B_C" />
<route id="route259" edges="A_B B_E E_F F_I I_F F_C C_F" />
<route id="route260" edges="A_B B_E E_F F_I I_F F_E E_B B_A" />
<route id="route261" edges="A_B B_E E_F F_I I_F F_E E_B B_C" />
<route id="route262" edges="A_B B_E E_F F_I I_F F_E E_D D_A" />
<route id="route263" edges="A_B B_E E_F F_I I_F F_E E_D D_G" />
<route id="route264" edges="A_B B_E E_F F_I I_F F_E E_H H_G" />
<route id="route265" edges="A_B B_E E_F F_I I_F F_E E_H H_I" />
<route id="route266" edges="A_B B_E E_F F_C" />
<route id="route267" edges="A_B B_E E_F F_C C_B" />
<route id="route268" edges="A_B B_E E_F F_C C_B B_A" />
<route id="route269" edges="A_B B_E E_F F_C C_B B_A A_D" />
<route id="route270" edges="A_B B_E E_F F_C C_B B_A A_D D_G" />
<route id="route271" edges="A_B B_E E_F F_C C_B B_A A_D D_A" />
<route id="route272" edges="A_B B_E E_F F_C C_B B_C" />
<route id="route273" edges="A_B B_E E_F F_C C_B B_C C_F" />
<route id="route274" edges="A_B B_E E_F F_C C_B B_C C_F F_I" />
<route id="route275" edges="A_B B_E E_F F_C C_F" />
<route id="route276" edges="A_B B_E E_F F_C C_F F_E E_B B_A" />
<route id="route277" edges="A_B B_E E_F F_C C_F F_E E_B B_C" />
<route id="route278" edges="A_B B_E E_F F_C C_F F_E E_D D_A" />
<route id="route279" edges="A_B B_E E_F F_C C_F F_E E_D D_G" />
<route id="route280" edges="A_B B_E E_F F_C C_F F_E E_H H_G" />
<route id="route281" edges="A_B B_E E_F F_C C_F F_E E_H H_I" />
<route id="route282" edges="A_B B_E E_F F_C C_F F_I" />
<route id="route283" edges="A_B B_E E_F F_C C_F F_I I_H" />
<route id="route284" edges="A_B B_E E_F F_C C_F F_I I_H H_G" />
<route id="route285" edges="A_B B_E E_F F_C C_F F_I I_H H_I" />
<route id="route286" edges="A_B B_E E_F F_C C_F F_I I_F" />
<route id="route287" edges="A_B B_E E_F F_E E_B B_A" />
<route id="route288" edges="A_B B_E E_F F_E E_B B_A A_D" />
<route id="route289" edges="A_B B_E E_F F_E E_B B_A A_D D_G" />
<route id="route290" edges="A_B B_E E_F F_E E_B B_A A_D D_A" />
<route id="route291" edges="A_B B_E E_F F_E E_B B_C" />
<route id="route292" edges="A_B B_E E_F F_E E_B B_C C_F" />
<route id="route293" edges="A_B B_E E_F F_E E_B B_C C_F F_I" />
<route id="route294" edges="A_B B_E E_F F_E E_B B_C C_F F_C" />
<route id="route295" edges="A_B B_E E_F F_E E_B B_C C_B" />
<route id="route296" edges="A_B B_E E_F F_E E_B B_C C_B B_A" />
<route id="route297" edges="A_B B_E E_F F_E E_D D_A" />
<route id="route298" edges="A_B B_E E_F F_E E_D D_A A_D" />
<route id="route299" edges="A_B B_E E_F F_E E_D D_A A_D D_G" />
<route id="route300" edges="A_B B_E E_F F_E E_D D_G" />
<route id="route301" edges="A_B B_E E_F F_E E_D D_G G_H" />
<route id="route302" edges="A_B B_E E_F F_E E_D D_G G_H H_I" />
<route id="route303" edges="A_B B_E E_F F_E E_D D_G G_H H_G" />
<route id="route304" edges="A_B B_E E_F F_E E_D D_G G_D" />
<route id="route305" edges="A_B B_E E_F F_E E_D D_G G_D D_A" />
<route id="route306" edges="A_B B_E E_F F_E E_D D_E E_H H_G" />
<route id="route307" edges="A_B B_E E_F F_E E_D D_E E_H H_I" />
<route id="route308" edges="A_B B_E E_F F_E E_D D_E E_B B_A" />
<route id="route309" edges="A_B B_E E_F F_E E_D D_E E_B B_C" />
<route id="route310" edges="A_B B_E E_F F_E E_H H_G" />
<route id="route311" edges="A_B B_E E_F F_E E_H H_G G_D" />
<route id="route312" edges="A_B B_E E_F F_E E_H H_G G_D D_A" />
<route id="route313" edges="A_B B_E E_F F_E E_H H_G G_D D_G" />
<route id="route314" edges="A_B B_E E_F F_E E_H H_G G_H" />
<route id="route315" edges="A_B B_E E_F F_E E_H H_G G_H H_I" />
<route id="route316" edges="A_B B_E E_F F_E E_H H_I" />
<route id="route317" edges="A_B B_E E_F F_E E_H H_I I_F" />
<route id="route318" edges="A_B B_E E_F F_E E_H H_I I_F F_C" />
<route id="route319" edges="A_B B_E E_F F_E E_H H_I I_F F_I" />
<route id="route320" edges="A_B B_E E_F F_E E_H H_I I_H" />
<route id="route321" edges="A_B B_E E_F F_E E_H H_I I_H H_G" />
<route id="route322" edges="A_B B_E E_F F_E E_H H_E E_B B_A" />
<route id="route323" edges="A_B B_E E_F F_E E_H H_E E_B B_C" />
<route id="route324" edges="A_B B_E E_F F_E E_H H_E E_D D_A" />
<route id="route325" edges="A_B B_E E_F F_E E_H H_E E_D D_G" />
<route id="route326" edges="A_B B_E E_H H_G" />
<route id="route327" edges="A_B B_E E_H H_G G_D" />
<route id="route328" edges="A_B B_E E_H H_G G_D D_A" />
<route id="route329" edges="A_B B_E E_H H_G G_D D_A A_D" />
<route id="route330" edges="A_B B_E E_H H_G G_D D_A A_D D_G" />
<route id="route331" edges="A_B B_E E_H H_G G_D D_E E_F F_I" />
<route id="route332" edges="A_B B_E E_H H_G G_D D_E E_F F_C" />
<route id="route333" edges="A_B B_E E_H H_G G_D D_E E_B B_A" />
<route id="route334" edges="A_B B_E E_H H_G G_D D_E E_B B_C" />
<route id="route335" edges="A_B B_E E_H H_G G_D D_E E_D D_A" />
<route id="route336" edges="A_B B_E E_H H_G G_D D_E E_D D_G" />
<route id="route337" edges="A_B B_E E_H H_G G_D D_G" />
<route id="route338" edges="A_B B_E E_H H_G G_D D_G G_H" />
<route id="route339" edges="A_B B_E E_H H_G G_D D_G G_H H_I" />
<route id="route340" edges="A_B B_E E_H H_G G_H" />
<route id="route341" edges="A_B B_E E_H H_G G_H H_I" />
<route id="route342" edges="A_B B_E E_H H_G G_H H_I I_F" />
<route id="route343" edges="A_B B_E E_H H_G G_H H_I I_F F_C" />
<route id="route344" edges="A_B B_E E_H H_G G_H H_I I_F F_I" />
<route id="route345" edges="A_B B_E E_H H_G G_H H_I I_H" />
<route id="route346" edges="A_B B_E E_H H_G G_H H_E E_B B_A" />
<route id="route347" edges="A_B B_E E_H H_G G_H H_E E_B B_C" />
<route id="route348" edges="A_B B_E E_H H_G G_H H_E E_D D_A" />
<route id="route349" edges="A_B B_E E_H H_G G_H H_E E_D D_G" />
<route id="route350" edges="A_B B_E E_H H_G G_H H_E E_F F_I" />
<route id="route351" edges="A_B B_E E_H H_G G_H H_E E_F F_C" />
<route id="route352" edges="A_B B_E E_H H_I" />
<route id="route353" edges="A_B B_E E_H H_I I_F" />
<route id="route354" edges="A_B B_E E_H H_I I_F F_C" />
<route id="route355" edges="A_B B_E E_H H_I I_F F_C C_B" />
<route id="route356" edges="A_B B_E E_H H_I I_F F_C C_B B_A" />
<route id="route357" edges="A_B B_E E_H H_I I_F F_C C_B B_C" />
<route id="route358" edges="A_B B_E E_H H_I I_F F_C C_F" />
<route id="route359" edges="A_B B_E E_H H_I I_F F_C C_F F_I" />
<route id="route360" edges="A_B B_E E_H H_I I_F F_E E_B B_A" />
<route id="route361" edges="A_B B_E E_H H_I I_F F_E E_B B_C" />
<route id="route362" edges="A_B B_E E_H H_I I_F F_E E_D D_A" />
<route id="route363" edges="A_B B_E E_H H_I I_F F_E E_D D_G" />
<route id="route364" edges="A_B B_E E_H H_I I_F F_E E_F F_I" />
<route id="route365" edges="A_B B_E E_H H_I I_F F_E E_F F_C" />
<route id="route366" edges="A_B B_E E_H H_I I_F F_I" />
<route id="route367" edges="A_B B_E E_H H_I I_F F_I I_H" />
<route id="route368" edges="A_B B_E E_H H_I I_F F_I I_H H_G" />
<route id="route369" edges="A_B B_E E_H H_I I_H" />
<route id="route370" edges="A_B B_E E_H H_I I_H H_G" />
<route id="route371" edges="A_B B_E E_H H_I I_H H_G G_D" />
<route id="route372" edges="A_B B_E E_H H_I I_H H_G G_D D_A" />
<route id="route373" edges="A_B B_E E_H H_I I_H H_G G_D D_G" />
<route id="route374" edges="A_B B_E E_H H_I I_H H_G G_H" />
<route id="route375" edges="A_B B_E E_H H_I I_H H_E E_B B_A" />
<route id="route376" edges="A_B B_E E_H H_I I_H H_E E_B B_C" />
<route id="route377" edges="A_B B_E E_H H_I I_H H_E E_D D_A" />
<route id="route378" edges="A_B B_E E_H H_I I_H H_E E_D D_G" />
<route id="route379" edges="A_B B_E E_H H_I I_H H_E E_F F_I" />
<route id="route380" edges="A_B B_E E_H H_I I_H H_E E_F F_C" />
<route id="route381" edges="A_B B_E E_H H_E E_B B_A" />
<route id="route382" edges="A_B B_E E_H H_E E_B B_A A_D" />
<route id="route383" edges="A_B B_E E_H H_E E_B B_A A_D D_G" />
<route id="route384" edges="A_B B_E E_H H_E E_B B_A A_D D_A" />
<route id="route385" edges="A_B B_E E_H H_E E_B B_C" />
<route id="route386" edges="A_B B_E E_H H_E E_B B_C C_F" />
<route id="route387" edges="A_B B_E E_H H_E E_B B_C C_F F_I" />
<route id="route388" edges="A_B B_E E_H H_E E_B B_C C_F F_C" />
<route id="route389" edges="A_B B_E E_H H_E E_B B_C C_B" />
<route id="route390" edges="A_B B_E E_H H_E E_B B_C C_B B_A" />
<route id="route391" edges="A_B B_E E_H H_E E_D D_A" />
<route id="route392" edges="A_B B_E E_H H_E E_D D_A A_D" />
<route id="route393" edges="A_B B_E E_H H_E E_D D_A A_D D_G" />
<route id="route394" edges="A_B B_E E_H H_E E_D D_G" />
<route id="route395" edges="A_B B_E E_H H_E E_D D_G G_H" />
<route id="route396" edges="A_B B_E E_H H_E E_D D_G G_H H_I" />
<route id="route397" edges="A_B B_E E_H H_E E_D D_G G_H H_G" />
<route id="route398" edges="A_B B_E E_H H_E E_D D_G G_D" />
<route id="route399" edges="A_B B_E E_H H_E E_D D_G G_D D_A" />
<route id="route400" edges="A_B B_E E_H H_E E_D D_E E_F F_I" />
<route id="route401" edges="A_B B_E E_H H_E E_D D_E E_F F_C" />
<route id="route402" edges="A_B B_E E_H H_E E_D D_E E_B B_A" />
<route id="route403" edges="A_B B_E E_H H_E E_D D_E E_B B_C" />
<route id="route404" edges="A_B B_E E_H H_E E_F F_I" />
<route id="route405" edges="A_B B_E E_H H_E E_F F_I I_H" />
<route id="route406" edges="A_B B_E E_H H_E E_F F_I I_H H_G" />
<route id="route407" edges="A_B B_E E_H H_E E_F F_I I_H H_I" />
<route id="route408" edges="A_B B_E E_H H_E E_F F_I I_F" />
<route id="route409" edges="A_B B_E E_H H_E E_F F_I I_F F_C" />
<route id="route410" edges="A_B B_E E_H H_E E_F F_C" />
<route id="route411" edges="A_B B_E E_H H_E E_F F_C C_B" />
<route id="route412" edges="A_B B_E E_H H_E E_F F_C C_B B_A" />
<route id="route413" edges="A_B B_E E_H H_E E_F F_C C_B B_C" />
<route id="route414" edges="A_B B_E E_H H_E E_F F_C C_F" />
<route id="route415" edges="A_B B_E E_H H_E E_F F_C C_F F_I" />
<route id="route416" edges="A_B B_E E_H H_E E_F F_E E_B B_A" />
<route id="route417" edges="A_B B_E E_H H_E E_F F_E E_B B_C" />
<route id="route418" edges="A_B B_E E_H H_E E_F F_E E_D D_A" />
<route id="route419" edges="A_B B_E E_H H_E E_F F_E E_D D_G" />
<route id="route420" edges="A_B B_E E_B B_A" />
<route id="route421" edges="A_B B_E E_B B_A A_D" />
<route id="route422" edges="A_B B_E E_B B_A A_D D_E E_F F_I" />
<route id="route423" edges="A_B B_E E_B B_A A_D D_E E_F F_C" />
<route id="route424" edges="A_B B_E E_B B_A A_D D_E E_H H_G" />
<route id="route425" edges="A_B B_E E_B B_A A_D D_E E_H H_I" />
<route id="route426" edges="A_B B_E E_B B_A A_D D_E E_D D_A" />
<route id="route427" edges="A_B B_E E_B B_A A_D D_E E_D D_G" />
<route id="route428" edges="A_B B_E E_B B_A A_D D_G" />
<route id="route429" edges="A_B B_E E_B B_A A_D D_G G_H" />
<route id="route430" edges="A_B B_E E_B B_A A_D D_G G_H H_I" />
<route id="route431" edges="A_B B_E E_B B_A A_D D_G G_H H_G" />
<route id="route432" edges="A_B B_E E_B B_A A_D D_G G_D" />
<route id="route433" edges="A_B B_E E_B B_A A_D D_G G_D D_A" />
<route id="route434" edges="A_B B_E E_B B_A A_D D_A" />
<route id="route435" edges="A_B B_E E_B B_C" />
<route id="route436" edges="A_B B_E E_B B_C C_F" />
<route id="route437" edges="A_B B_E E_B B_C C_F F_E E_D D_A" />
<route id="route438" edges="A_B B_E E_B B_C C_F F_E E_D D_G" />
<route id="route439" edges="A_B B_E E_B B_C C_F F_E E_H H_G" />
<route id="route440" edges="A_B B_E E_B B_C C_F F_E E_H H_I" />
<route id="route441" edges="A_B B_E E_B B_C C_F F_E E_F F_I" />
<route id="route442" edges="A_B B_E E_B B_C C_F F_E E_F F_C" />
<route id="route443" edges="A_B B_E E_B B_C C_F F_I" />
<route id="route444" edges="A_B B_E E_B B_C C_F F_I I_H" />
<route id="route445" edges="A_B B_E E_B B_C C_F F_I I_H H_G" />
<route id="route446" edges="A_B B_E E_B B_C C_F F_I I_H H_I" />
<route id="route447" edges="A_B B_E E_B B_C C_F F_I I_F" />
<route id="route448" edges="A_B B_E E_B B_C C_F F_I I_F F_C" />
<route id="route449" edges="A_B B_E E_B B_C C_F F_C" />
<route id="route450" edges="A_B B_E E_B B_C C_F F_C C_B" />
<route id="route451" edges="A_B B_E E_B B_C C_F F_C C_B B_A" />
<route id="route452" edges="A_B B_E E_B B_C C_B" />
<route id="route453" edges="A_B B_E E_B B_C C_B B_A" />
<route id="route454" edges="A_B B_E E_B B_C C_B B_A A_D" />
<route id="route455" edges="A_B B_E E_B B_C C_B B_A A_D D_G" />
<route id="route456" edges="A_B B_E E_B B_C C_B B_A A_D D_A" />
<route id="route457" edges="A_B B_A" />
<route id="route458" edges="A_B B_A A_D" />
<route id="route459" edges="A_B B_A A_D D_E E_F F_I" />
<route id="route460" edges="A_B B_A A_D D_E E_F F_I I_H" />
<route id="route461" edges="A_B B_A A_D D_E E_F F_I I_H H_G" />
<route id="route462" edges="A_B B_A A_D D_E E_F F_I I_H H_I" />
<route id="route463" edges="A_B B_A A_D D_E E_F F_I I_F" />
<route id="route464" edges="A_B B_A A_D D_E E_F F_I I_F F_C" />
<route id="route465" edges="A_B B_A A_D D_E E_F F_C" />
<route id="route466" edges="A_B B_A A_D D_E E_F F_C C_B" />
<route id="route467" edges="A_B B_A A_D D_E E_F F_C C_B B_C" />
<route id="route468" edges="A_B B_A A_D D_E E_F F_C C_F" />
<route id="route469" edges="A_B B_A A_D D_E E_F F_C C_F F_I" />
<route id="route470" edges="A_B B_A A_D D_E E_F F_E E_B B_C" />
<route id="route471" edges="A_B B_A A_D D_E E_F F_E E_D D_A" />
<route id="route472" edges="A_B B_A A_D D_E E_F F_E E_D D_G" />
<route id="route473" edges="A_B B_A A_D D_E E_F F_E E_H H_G" />
<route id="route474" edges="A_B B_A A_D D_E E_F F_E E_H H_I" />
<route id="route475" edges="A_B B_A A_D D_E E_H H_G" />
<route id="route476" edges="A_B B_A A_D D_E E_H H_G G_D" />